! DFT B3LYP 6-31g TightSCF Grid5 NoFinalGrid SlowConv
%pal
nprocs 16
end
%method SpecialGridAtoms 26
SpecialGridIntAcc 7
end
%basis NewGTO 26 "CP(PPP)" end
end
# [{Fe-NO}^7]0 , s = 1/2 ,  m = 2s + 1
* xyz 0 2
Fe -0.006386 -0.186355 -0.663873
S 1.700097 -1.679401 -0.211164
S 1.544625 1.540727 -0.708019
S -1.650605 -1.845280 -0.361512
S -1.630088 1.377547 -0.676264
C 5.519615 0.881847 -0.206807
C 5.608257 -0.502000 -0.003554
C 4.443638 -1.272539 -0.005198
C 3.199454 -0.650906 -0.183607
C 3.094532 0.733194 -0.409947
C 4.285190 1.493448 -0.407038
C -3.154026 -0.908425 -0.248825
C -3.177542 0.490342 -0.380027
C -4.393958 -1.552134 -0.034064
C -5.579011 -0.820398 0.020747
C -5.576172 0.571982 -0.142694
C -4.365396 1.227566 -0.352609
C 1.327233 -1.941070 1.590112
C -1.323662 2.111848 0.997698
C -0.711614 1.123274 1.950115
C 0.644647 -0.760063 2.223933
N -0.053784 0.070078 1.415251
C 0.705902 -0.552975 3.601994
C -0.731125 1.353476 3.325783
C -0.002671 0.508876 4.160610
H 6.422278 1.486938 -0.213744
H 6.575128 -0.975611 0.138374
H 4.500954 -2.349197 0.133391
H 4.225942 2.566259 -0.569654
H -4.418588 -2.632640 0.082643
H -6.519720 -1.340501 0.182757
H -6.500366 1.140228 -0.116120
H -4.334036 2.305904 -0.485791
H 2.248636 -2.204242 2.113445
H 0.668884 -2.815632 1.591764
H -2.261147 2.525851 1.370666
H -0.616363 2.926946 0.814300
H 1.306881 -1.209271 4.222238
H -1.279123 2.200577 3.725636
H 0.026490 0.686156 5.231422
N 0.094944 -0.315323 -2.387067
O 0.094422 0.351832 -3.374413
*
# Note that the EPR block needs to below the coordinate block for 
# the “all Fe” command (all irons) to be recognized. 
%eprnmr nuclei = all Fe {rho, fgrad}
end
