! DFT B3LYP 6-31g TightSCF Grid5 NoFinalGrid SlowConv
%pal
nprocs 16
end
%method SpecialGridAtoms 26
SpecialGridIntAcc 7
end
%basis NewGTO 26 "CP(PPP)" end
end
# [Fe(SME)]0 , s = 0 ,  m = 2s + 1
* xyz 0 1
Fe 0.002211 -0.515467 -0.057041
S 0.038176 -2.829800 -0.476282
C 1.705782 -3.569445 -0.202375
S -1.658817 -0.292437 -1.553521
S -1.558229 -0.674178 1.639733
S 1.609555 -0.358768 -1.743157
S 1.628638 -0.437710 1.474907
C -5.501108 0.020122 0.943413
C -5.569128 0.188902 -0.448715
C -4.398291 0.107417 -1.203267
C -3.172211 -0.119275 -0.564830
C -3.086050 -0.309090 0.827952
C -4.284682 -0.221819 1.571627
C 3.086004 0.047062 -0.842676
C 3.125224 0.030246 0.561783
C 4.280649 0.386089 -1.517541
C 5.440821 0.699391 -0.812977
C 5.455483 0.678770 0.590451
C 4.293395 0.324596 1.274902
C -1.252725 1.463143 -2.026972
C 1.141966 1.216466 2.186853
C 0.599742 2.086874 1.100027
C -0.631752 2.197487 -0.882733
N -0.031758 1.442201 0.076315
C -0.618567 3.590922 -0.850106
C 0.687340 3.476891 1.154912
C 0.063584 4.247188 0.175045
H -6.407448 0.064990 1.541506
H -6.524778 0.360394 -0.935244
H -4.435000 0.221124 -2.284266
H -4.240942 -0.349651 2.650285
H 4.285455 0.410510 -2.604316
H 6.337377 0.968235 -1.365965
H 6.353388 0.933202 1.146204
H 4.287896 0.285447 2.361752
H -2.134418 1.964910 -2.430121
H -0.514172 1.329982 -2.823785
H 1.983818 1.673642 2.709683
H 0.356480 0.966600 2.906403
H -1.121572 4.140964 -1.638556
H 1.218765 3.950336 1.974246
H 0.111624 5.331190 0.210626
H 1.984355 -3.498978 0.851066
C -0.903421 -3.860847 0.726223
H 2.391700 -2.991848 -0.822514
H 1.683679 -4.613242 -0.520410
H -0.489135 -3.730485 1.726783
H -0.837496 -4.903237 0.407316
H -1.939563 -3.525718 0.708967
*
# Note that the EPR block needs to below the coordinate block for 
# the “all Fe” command (all irons) to be recognized. 
%eprnmr nuclei = all Fe {rho, fgrad}
end
