! DFT B3LYP 6-31g TightSCF Grid5 NoFinalGrid SlowConv
%pal
nprocs 16
end
%method SpecialGridAtoms 26
SpecialGridIntAcc 7
end
%basis NewGTO 26 "CP(PPP)" end
end
# [Fe(lll)Az]1+  s = 1/2
* xyz 1 2
Fe 0.022934 -0.015741 0.001763
N 2.001882 -0.168113 -0.406410
H 2.466331 0.303514 0.374597
N -0.031051 -1.547153 1.335126
H 0.306429 -1.067000 2.176633
N 0.422904 1.087192 1.571240
N 0.936171 2.169091 1.712859
N 1.415196 3.208288 1.923100
C 2.308956 0.621958 -1.639286
H 2.009045 0.020683 -2.501180
H 3.382152 0.827744 -1.705455
C 2.548760 -1.561539 -0.447329
H 3.623433 -1.505097 -0.656914
H 2.054710 -2.078051 -1.273675
C 2.310620 -2.297055 0.871961
H 2.661812 -1.690517 1.717555
H 2.924541 -3.203495 0.864077
C 0.861739 -2.724773 1.107631
H 0.477072 -3.280429 0.247669
H 0.810754 -3.372470 1.990460
C -1.455480 -1.926505 1.589333
H -1.540972 -2.492222 2.522788
H -1.784685 -2.565878 0.766310
C 1.501896 1.906113 -1.565698
N 0.076842 1.520762 -1.325150
N -1.959544 0.137464 0.405761
H -2.438690 -0.332712 -0.366894
C -2.264284 -0.643422 1.646780
H -1.964734 -0.033304 2.502275
H -3.337159 -0.849725 1.714961
N -0.348262 -1.139014 -1.561295
N -1.180131 -2.000815 -1.721108
N -1.950972 -2.840167 -1.952411
C -2.508184 1.531197 0.440942
H -3.581675 1.474561 0.654958
H -2.014882 2.051719 1.264981
C -2.274665 2.259171 -0.883084
H -2.623735 1.645942 -1.724858
H -2.892097 3.163392 -0.880571
C -0.828368 2.693499 -1.119976
H -0.245093 1.032794 -2.168264
H -0.455811 3.270520 -0.269553
H 1.590062 2.488853 -2.488312
H 1.826457 2.529027 -0.728275
H -0.778775 3.328033 -2.012219
*
# Note that the EPR block needs to below the coordinate block for 
# the “all Fe” command (all irons) to be recognized. 
%eprnmr nuclei = all Fe {rho, fgrad}
end
